#!/sbin/sh
##########################################################################################
#
# Magisk Module Template Install Script
# by topjohnwu
#
##########################################################################################

TMPDIR=/dev/tmp
INSTALLER=$TMPDIR/install
# Always mount under tmp
MOUNTPATH=$TMPDIR/magisk_img

# Default permissions
umask 022

# Initial cleanup
rm -rf $TMPDIR 2>/dev/null
mkdir -p $INSTALLER

# echo before loading util_functions
ui_print() { echo "$1"; }

require_new_magisk() {
  ui_print "*******************************"
  ui_print " Please install Magisk v17.0+! "
  ui_print "*******************************"
  exit 1
}

##########################################################################################
# Environment
##########################################################################################

OUTFD=$2
ZIP=$3

mount /data 2>/dev/null

# Load utility functions
if [ -f /data/adb/magisk/util_functions.sh ]; then
  . /data/adb/magisk/util_functions.sh
elif [ -f /data/magisk/util_functions.sh ]; then
  NVBASE=/data
  . /data/magisk/util_functions.sh
else
  require_new_magisk
fi

# Use alternative image if in BOOTMODE
$BOOTMODE && IMG=$NVBASE/magisk_merge.img

# Preperation for flashable zips
setup_flashable

# Mount partitions
mount_partitions

# Detect version and architecture
api_level_arch_detect

# You can get the Android API version from $API, the CPU architecture from $ARCH
# Useful if you are creating Android version / platform dependent mods

# Setup busybox and binaries
$BOOTMODE && boot_actions || recovery_actions

##########################################################################################
# Preparation
##########################################################################################

# Extract common files
unzip -o "$ZIP" module.prop config.sh 'common/*' -d $INSTALLER >&2

[ ! -f $INSTALLER/config.sh ] && abort "! Unable to extract zip file!"
# Load configurations
. $INSTALLER/config.sh

# Check the installed magisk version
MIN_VER=`grep_prop minMagisk $INSTALLER/module.prop`
[ ! -z $MAGISK_VER_CODE -a $MAGISK_VER_CODE -ge $MIN_VER ] || require_new_magisk
MODID=`grep_prop id $INSTALLER/module.prop`
MODPATH=$MOUNTPATH/$MODID

# Print mod name
print_modname

# Please leave this message in your flashable zip for credits :)
ui_print "******************************"
ui_print "Powered by Magisk (@topjohnwu)"
ui_print "******************************"

##########################################################################################
# Install
##########################################################################################

# Get the variable reqSizeM. Use your own method to determine reqSizeM if needed
request_zip_size_check "$ZIP"

# This function will mount $IMG to $MOUNTPATH, and resize the image based on $reqSizeM
mount_magisk_img

# Create mod paths
rm -rf $MODPATH 2>/dev/null
mkdir -p $MODPATH

# Extract files to system. Use your own method if needed
ui_print "- Extracting module files"
unzip -o "$ZIP" 'system/*' -d $MODPATH >&2

# Remove placeholder
rm -f $MODPATH/system/placeholder 2>/dev/null

# Handle replace folders
for TARGET in $REPLACE; do
  mktouch $MODPATH$TARGET/.replace
done

# Auto Mount
$AUTOMOUNT && touch $MODPATH/auto_mount

# prop files
$PROPFILE && cp -af $INSTALLER/common/system.prop $MODPATH/system.prop

# Module info
cp -af $INSTALLER/module.prop $MODPATH/module.prop
if $BOOTMODE; then
  # Update info for Magisk Manager
  mktouch /sbin/.core/img/$MODID/update
  cp -af $INSTALLER/module.prop /sbin/.core/img/$MODID/module.prop
fi

# post-fs-data mode scripts
$POSTFSDATA && cp -af $INSTALLER/common/post-fs-data.sh $MODPATH/post-fs-data.sh

# service mode scripts
$LATESTARTSERVICE && cp -af $INSTALLER/common/service.sh $MODPATH/service.sh

# migrating fonts.xml
ui_print "- Migrating fonts.xml"
[[ -d /sbin/.core/mirror ]] && MIRRORPATH=/sbin/.core/mirror || unset MIRRORPATH
FILE=fonts.xml
FILEPATH=/system/etc/
if [ -f $MIRRORPATH$FILEPATH$FILE ]; then
  mkdir -p $MODPATH$FILEPATH
  cp -af $MIRRORPATH$FILEPATH$FILE $MODPATH$FILEPATH$FILE
  sed -i '
    /<family lang=\"zh-Hans\">/,/<\/family>/ {/<\/family>/! d;
      /<\/family>/ s/.*/<family lang="zh-Hans">\n<font weight="100" style="normal" index="2">NotoSansCJK-Thin.ttc<\/font>\n<font weight="100" style="normal" index="2" fallbackFor="serif">NotoSerifCJK-Thin.ttc<\/font>\n<font weight="300" style="normal" index="2">NotoSansCJK-Light.ttc<\/font>\n<font weight="300" style="normal" index="2" fallbackFor="serif">NotoSerifCJK-Light.ttc<\/font>\n<font weight="350" style="normal" index="2">NotoSansCJK-DemiLight.ttc<\/font>\n<font weight="350" style="normal" index="2" fallbackFor="serif">NotoSerifCJK-DemiLight.ttc<\/font>\n<font weight="400" style="normal" index="2">NotoSansCJK-Regular.ttc<\/font>\n<font weight="400" style="normal" index="2" fallbackFor="serif">NotoSerifCJK-Regular.ttc<\/font>\n<font weight="500" style="normal" index="2">NotoSansCJK-Medium.ttc<\/font>\n<font weight="500" style="normal" index="2" fallbackFor="serif">NotoSerifCJK-Medium.ttc<\/font>\n<font weight="900" style="normal" index="2">NotoSansCJK-Black.ttc<\/font>\n<font weight="900" style="normal" index="2" fallbackFor="serif">NotoSerifCJK-Black.ttc<\/font>\n<font weight="700" style="normal" index="2">NotoSansCJK-Bold.ttc<\/font>\n<font weight="700" style="normal" index="2" fallbackFor="serif">NotoSerifCJK-Bold.ttc<\/font>\n<\/family>/};
    /<family lang=\"zh-Hant\">/,/<\/family>/ {/<\/family>/! d;
      /<\/family>/ s/.*/<family lang="zh-Hant">\n<font weight="100" style="normal" index="3">NotoSansCJK-Thin.ttc<\/font>\n<font weight="100" style="normal" index="3" fallbackFor="serif">NotoSerifCJK-Thin.ttc<\/font>\n<font weight="300" style="normal" index="3">NotoSansCJK-Light.ttc<\/font>\n<font weight="300" style="normal" index="3" fallbackFor="serif">NotoSerifCJK-Light.ttc<\/font>\n<font weight="350" style="normal" index="3">NotoSansCJK-DemiLight.ttc<\/font>\n<font weight="350" style="normal" index="3" fallbackFor="serif">NotoSerifCJK-DemiLight.ttc<\/font>\n<font weight="400" style="normal" index="3">NotoSansCJK-Regular.ttc<\/font>\n<font weight="400" style="normal" index="3" fallbackFor="serif">NotoSerifCJK-Regular.ttc<\/font>\n<font weight="500" style="normal" index="3">NotoSansCJK-Medium.ttc<\/font>\n<font weight="500" style="normal" index="3" fallbackFor="serif">NotoSerifCJK-Medium.ttc<\/font>\n<font weight="900" style="normal" index="3">NotoSansCJK-Black.ttc<\/font>\n<font weight="900" style="normal" index="3" fallbackFor="serif">NotoSerifCJK-Black.ttc<\/font>\n<font weight="700" style="normal" index="3">NotoSansCJK-Bold.ttc<\/font>\n<font weight="700" style="normal" index="3" fallbackFor="serif">NotoSerifCJK-Bold.ttc<\/font>\n<\/family>/};
    /<family lang=\"zh-Bopo\">/,/<\/family>/ {/<\/family>/! d;
      /<\/family>/ s/.*/<family lang="zh-Bopo">\n<font weight="100" style="normal" index="3">NotoSansCJK-Thin.ttc<\/font>\n<font weight="100" style="normal" index="3" fallbackFor="serif">NotoSerifCJK-Thin.ttc<\/font>\n<font weight="300" style="normal" index="3">NotoSansCJK-Light.ttc<\/font>\n<font weight="300" style="normal" index="3" fallbackFor="serif">NotoSerifCJK-Light.ttc<\/font>\n<font weight="350" style="normal" index="3">NotoSansCJK-DemiLight.ttc<\/font>\n<font weight="350" style="normal" index="3" fallbackFor="serif">NotoSerifCJK-DemiLight.ttc<\/font>\n<font weight="400" style="normal" index="3">NotoSansCJK-Regular.ttc<\/font>\n<font weight="400" style="normal" index="3" fallbackFor="serif">NotoSerifCJK-Regular.ttc<\/font>\n<font weight="500" style="normal" index="3">NotoSansCJK-Medium.ttc<\/font>\n<font weight="500" style="normal" index="3" fallbackFor="serif">NotoSerifCJK-Medium.ttc<\/font>\n<font weight="900" style="normal" index="3">NotoSansCJK-Black.ttc<\/font>\n<font weight="900" style="normal" index="3" fallbackFor="serif">NotoSerifCJK-Black.ttc<\/font>\n<font weight="700" style="normal" index="3">NotoSansCJK-Bold.ttc<\/font>\n<font weight="700" style="normal" index="3" fallbackFor="serif">NotoSerifCJK-Bold.ttc<\/font>\n<\/family>/};
    /<family lang=\"zh-Hant zh-Bopo\">/,/<\/family>/ {/<\/family>/! d;
      /<\/family>/ s/.*/<family lang="zh-Hant zh-Bopo">\n<font weight="100" style="normal" index="3">NotoSansCJK-Thin.ttc<\/font>\n<font weight="100" style="normal" index="3" fallbackFor="serif">NotoSerifCJK-Thin.ttc<\/font>\n<font weight="300" style="normal" index="3">NotoSansCJK-Light.ttc<\/font>\n<font weight="300" style="normal" index="3" fallbackFor="serif">NotoSerifCJK-Light.ttc<\/font>\n<font weight="350" style="normal" index="3">NotoSansCJK-DemiLight.ttc<\/font>\n<font weight="350" style="normal" index="3" fallbackFor="serif">NotoSerifCJK-DemiLight.ttc<\/font>\n<font weight="400" style="normal" index="3">NotoSansCJK-Regular.ttc<\/font>\n<font weight="400" style="normal" index="3" fallbackFor="serif">NotoSerifCJK-Regular.ttc<\/font>\n<font weight="500" style="normal" index="3">NotoSansCJK-Medium.ttc<\/font>\n<font weight="500" style="normal" index="3" fallbackFor="serif">NotoSerifCJK-Medium.ttc<\/font>\n<font weight="900" style="normal" index="3">NotoSansCJK-Black.ttc<\/font>\n<font weight="900" style="normal" index="3" fallbackFor="serif">NotoSerifCJK-Black.ttc<\/font>\n<font weight="700" style="normal" index="3">NotoSansCJK-Bold.ttc<\/font>\n<font weight="700" style="normal" index="3" fallbackFor="serif">NotoSerifCJK-Bold.ttc<\/font>\n<\/family>/};
    /<family lang=\"ja\">/,/<\/family>/ {/<\/family>/! d;
      /<\/family>/ s/.*/<family lang="ja">\n<font weight="100" style="normal" index="0">NotoSansCJK-Thin.ttc<\/font>\n<font weight="100" style="normal" index="0" fallbackFor="serif">NotoSerifCJK-Thin.ttc<\/font>\n<font weight="300" style="normal" index="0">NotoSansCJK-Light.ttc<\/font>\n<font weight="300" style="normal" index="0" fallbackFor="serif">NotoSerifCJK-Light.ttc<\/font>\n<font weight="350" style="normal" index="0">NotoSansCJK-DemiLight.ttc<\/font>\n<font weight="350" style="normal" index="0" fallbackFor="serif">NotoSerifCJK-DemiLight.ttc<\/font>\n<font weight="400" style="normal" index="0">NotoSansCJK-Regular.ttc<\/font>\n<font weight="400" style="normal" index="0" fallbackFor="serif">NotoSerifCJK-Regular.ttc<\/font>\n<font weight="500" style="normal" index="0">NotoSansCJK-Medium.ttc<\/font>\n<font weight="500" style="normal" index="0" fallbackFor="serif">NotoSerifCJK-Medium.ttc<\/font>\n<font weight="900" style="normal" index="0">NotoSansCJK-Black.ttc<\/font>\n<font weight="900" style="normal" index="0" fallbackFor="serif">NotoSerifCJK-Black.ttc<\/font>\n<font weight="700" style="normal" index="0">NotoSansCJK-Bold.ttc<\/font>\n<font weight="700" style="normal" index="0" fallbackFor="serif">NotoSerifCJK-Bold.ttc<\/font>\n<\/family>/};
    /<family lang=\"ko\">/,/<\/family>/ {/<\/family>/! d;
      /<\/family>/ s/.*/<family lang="ko">\n<font weight="100" style="normal" index="1">NotoSansCJK-Thin.ttc<\/font>\n<font weight="100" style="normal" index="1" fallbackFor="serif">NotoSerifCJK-Thin.ttc<\/font>\n<font weight="300" style="normal" index="1">NotoSansCJK-Light.ttc<\/font>\n<font weight="300" style="normal" index="1" fallbackFor="serif">NotoSerifCJK-Light.ttc<\/font>\n<font weight="350" style="normal" index="1">NotoSansCJK-DemiLight.ttc<\/font>\n<font weight="350" style="normal" index="1" fallbackFor="serif">NotoSerifCJK-DemiLight.ttc<\/font>\n<font weight="400" style="normal" index="1">NotoSansCJK-Regular.ttc<\/font>\n<font weight="400" style="normal" index="1" fallbackFor="serif">NotoSerifCJK-Regular.ttc<\/font>\n<font weight="500" style="normal" index="1">NotoSansCJK-Medium.ttc<\/font>\n<font weight="500" style="normal" index="1" fallbackFor="serif">NotoSerifCJK-Medium.ttc<\/font>\n<font weight="900" style="normal" index="1">NotoSansCJK-Black.ttc<\/font>\n<font weight="900" style="normal" index="1" fallbackFor="serif">NotoSerifCJK-Black.ttc<\/font>\n<font weight="700" style="normal" index="1">NotoSansCJK-Bold.ttc<\/font>\n<font weight="700" style="normal" index="1" fallbackFor="serif">NotoSerifCJK-Bold.ttc<\/font>\n<\/family>/};
    /^$/d' $MODPATH$FILEPATH$FILE
else
  ui_print "- Migration FAILED. Nothing have done to your system."
fi

ui_print "- Setting permissions"
set_permissions

##########################################################################################
# Finalizing
##########################################################################################

# Unmount magisk image and shrink if possible
unmount_magisk_img

$BOOTMODE || recovery_cleanup
rm -rf $TMPDIR

ui_print "- Done"
exit 0
